HIT
     RDKit          3D

 23 24  0  0  0  0  0  0  0  0999 V2000
   37.4609   38.2438   42.5156 C   0  0  0  0  0  0  0  0  0  0  0  0
   38.7196   39.0841   42.4844 C   0  0  0  0  0  0  0  0  0  0  0  0
   39.3928   38.8896   41.0911 C   0  0  0  0  0  0  0  0  0  0  0  0
   39.6569   38.5255   43.6068 C   0  0  0  0  0  0  0  0  0  0  0  0
   38.5214   40.5546   42.6905 N   0  0  0  0  0  0  0  0  0  0  0  0
   37.5280   41.2356   41.8177 C   0  0  0  0  0  0  0  0  0  0  0  0
   36.6943   41.6262   43.0314 C   0  0  0  0  0  0  0  0  0  0  0  0
   37.7593   40.9375   43.9004 C   0  0  2  0  0  0  0  0  0  0  0  0
   38.5234   41.9021   44.7807 C   0  0  0  0  0  0  0  0  0  0  0  0
   37.7191   42.3602   45.9173 N   0  0  0  0  0  0  0  0  0  0  0  0
   37.1162   43.6720   45.9378 C   0  0  0  0  0  0  0  0  0  0  0  0
   37.5263   44.5880   45.1529 O   0  0  0  0  0  0  0  0  0  0  0  0
   36.0293   43.9727   46.8838 C   0  0  0  0  0  0  0  0  0  0  0  0
   35.7828   45.2895   47.2963 C   0  0  0  0  0  0  0  0  0  0  0  0
   34.7806   45.5731   48.1544 N   0  0  0  0  0  0  0  0  0  0  0  0
   33.9806   44.6053   48.6380 C   0  0  0  0  0  0  0  0  0  0  0  0
   33.0607   44.9206   49.4278 O   0  0  0  0  0  0  0  0  0  0  0  0
   34.1771   43.2653   48.2543 C   0  0  0  0  0  0  0  0  0  0  0  0
   33.2779   42.1888   48.7695 C   0  0  0  0  0  0  0  0  0  0  0  0
   32.0335   42.4559   48.2775 F   0  0  0  0  0  0  0  0  0  0  0  0
   33.2561   42.1750   50.1856 F   0  0  0  0  0  0  0  0  0  0  0  0
   33.6744   40.9303   48.3482 F   0  0  0  0  0  0  0  0  0  0  0  0
   35.2069   42.9637   47.3613 C   0  0  0  0  0  0  0  0  0  0  0  0
  1  2  1  0
  2  3  1  0
  2  4  1  0
  2  5  1  0
  5  6  1  0
  6  7  1  0
  7  8  1  0
  8  9  1  1
  8  5  1  0
  9 10  1  0
 10 11  1  0
 11 12  2  0
 11 13  1  0
 13 14  2  0
 14 15  1  0
 15 16  1  0
 16 17  2  0
 16 18  1  0
 18 19  1  0
 18 23  2  0
 19 20  1  0
 19 21  1  0
 19 22  1  0
 23 13  1  0
M  END
$$$$
